cache://localLOAD_buckball2d.mol
__Jmol-14_06281609153D 1   1.00000     0.00000     0
Jmol version 14.6.0_2016.05.17  2016-05-18 00:22 EXTRACT: ({0:59})
 60 90  0  0  0  0              1 V2000
   6.41223  -3.44708  -0.52700 C   0  0  0  0  0  0
   5.68988  -3.16290  -1.68063 C   0  0  0  0  0  0
   7.65823  -2.78972  -0.61284 C   0  0  0  0  0  0
   5.71679  -3.52297   0.70149 C   0  0  0  0  0  0
   6.48654  -2.33515  -2.46829 C   0  0  0  0  0  0
   4.27539  -2.95614  -1.62673 C   0  0  0  0  0  0
   8.23916  -2.18461   0.52145 C   0  0  0  0  0  0
   7.70551  -2.10504  -1.82591 C   0  0  0  0  0  0
   4.31980  -3.31464   0.75819 C   0  0  0  0  0  0
   6.29001  -2.92180   1.81237 C   0  0  0  0  0  0
   5.88821  -1.29355  -3.19741 C   0  0  0  0  0  0
   3.58989  -3.03114  -0.41636 C   0  0  0  0  0  0
   3.69452  -1.92861  -2.36654 C   0  0  0  0  0  0
   7.54322  -2.24637   1.72225 C   0  0  0  0  0  0
   8.85989  -0.92412   0.43594 C   0  0  0  0  0  0
   8.33661  -0.83152  -1.92080 C   0  0  0  0  0  0
   4.03612  -2.58396   1.90800 C   0  0  0  0  0  0
   5.24818  -2.34330   2.53755 C   0  0  0  0  0  0
   6.50395  -0.05017  -3.29914 C   0  0  0  0  0  0
   4.51087  -1.09416  -3.15444 C   0  0  0  0  0  0
   2.58698  -2.04005  -0.41362 C   0  0  0  0  0  0
   2.64642  -1.36484  -1.63204 C   0  0  0  0  0  0
   7.72547  -1.02024   2.35539 C   0  0  0  0  0  0
   8.92543  -0.23846  -0.80252 C   0  0  0  0  0  0
   8.55931  -0.19274   1.58811 C   0  0  0  0  0  0
   7.73569   0.18934  -2.65898 C   0  0  0  0  0  0
   3.03342  -1.56829   1.91012 C   0  0  0  0  0  0
   5.45150  -1.10634   3.15411 C   0  0  0  0  0  0
   5.50450   0.91883  -3.30295 C   0  0  0  0  0  0
   4.27409   0.27432  -3.21956 C   0  0  0  0  0  0
   2.30059  -1.30375   0.75849 C   0  0  0  0  0  0
   2.40353   0.03432  -1.69310 C   0  0  0  0  0  0
   6.66794  -0.47212   3.09507 C   0  0  0  0  0  0
   8.70089   1.14670  -0.86816 C   0  0  0  0  0  0
   8.40066   1.22952   1.52866 C   0  0  0  0  0  0
   7.94720   1.40996  -2.01024 C   0  0  0  0  0  0
   3.26411  -0.34527   2.55038 C   0  0  0  0  0  0
   4.48198  -0.12536   3.22674 C   0  0  0  0  0  0
   5.71034   2.14797  -2.64715 C   0  0  0  0  0  0
   3.21084   0.85094  -2.48855 C   0  0  0  0  0  0
   2.07030   0.08059   0.70297 C   0  0  0  0  0  0
   2.10404   0.75814  -0.53726 C   0  0  0  0  0  0
   6.47216   0.96304   3.14467 C   0  0  0  0  0  0
   8.44282   1.90059   0.30150 C   0  0  0  0  0  0
   7.38692   1.84145   2.25999 C   0  0  0  0  0  0
   6.91655   2.39351  -1.99535 C   0  0  0  0  0  0
   2.66593   0.68580   1.81217 C   0  0  0  0  0  0
   5.13622   1.18737   3.18183 C   0  0  0  0  0  0
   4.66934   2.71549  -1.90944 C   0  0  0  0  0  0
   3.40797   2.06656  -1.83644 C   0  0  0  0  0  0
   2.71344   2.01346  -0.62962 C   0  0  0  0  0  0
   7.44455   2.90259   0.30283 C   0  0  0  0  0  0
   6.81682   2.84961   1.53583 C   0  0  0  0  0  0
   6.63130   3.12571  -0.83878 C   0  0  0  0  0  0
   3.24655   1.99054   1.72938 C   0  0  0  0  0  0
   4.51642   2.26970   2.42249 C   0  0  0  0  0  0
   5.22998   3.32030  -0.78580 C   0  0  0  0  0  0
   3.27896   2.63992   0.50380 C   0  0  0  0  0  0
   5.26059   3.10169   1.64948 C   0  0  0  0  0  0
   4.49317   3.32285   0.43144 C   0  0  0  0  0  0
  1  2  2  0  0  0
  1  3  1  0  0  0
  1  4  1  0  0  0
  2  5  1  0  0  0
  2  6  1  0  0  0
  3  7  2  0  0  0
  3  8  1  0  0  0
  4  9  2  0  0  0
  4 10  1  0  0  0
  5  8  2  0  0  0
  5 11  1  0  0  0
  6 12  2  0  0  0
  6 13  1  0  0  0
  7 14  1  0  0  0
  7 15  1  0  0  0
  8 16  1  0  0  0
  9 12  1  0  0  0
  9 17  1  0  0  0
 10 14  2  0  0  0
 10 18  1  0  0  0
 11 19  2  0  0  0
 11 20  1  0  0  0
 12 21  1  0  0  0
 13 20  2  0  0  0
 13 22  1  0  0  0
 14 23  1  0  0  0
 15 24  2  0  0  0
 15 25  1  0  0  0
 16 24  1  0  0  0
 16 26  2  0  0  0
 17 18  1  0  0  0
 17 27  2  0  0  0
 18 28  2  0  0  0
 19 26  1  0  0  0
 19 29  1  0  0  0
 20 30  1  0  0  0
 21 22  1  0  0  0
 21 31  2  0  0  0
 22 32  2  0  0  0
 23 25  1  0  0  0
 23 33  2  0  0  0
 24 34  1  0  0  0
 25 35  2  0  0  0
 26 36  1  0  0  0
 27 31  1  0  0  0
 27 37  1  0  0  0
 28 33  1  0  0  0
 28 38  1  0  0  0
 29 30  1  0  0  0
 29 39  2  0  0  0
 30 40  2  0  0  0
 31 41  1  0  0  0
 32 40  1  0  0  0
 32 42  1  0  0  0
 33 43  1  0  0  0
 34 36  1  0  0  0
 34 44  2  0  0  0
 35 44  1  0  0  0
 35 45  1  0  0  0
 36 46  2  0  0  0
 37 38  2  0  0  0
 37 47  1  0  0  0
 38 48  1  0  0  0
 39 46  1  0  0  0
 39 49  1  0  0  0
 40 50  1  0  0  0
 41 42  2  0  0  0
 41 47  1  0  0  0
 42 51  1  0  0  0
 43 45  1  0  0  0
 43 48  2  0  0  0
 44 52  1  0  0  0
 45 53  2  0  0  0
 46 54  1  0  0  0
 47 55  2  0  0  0
 48 56  1  0  0  0
 49 50  1  0  0  0
 49 57  2  0  0  0
 50 51  2  0  0  0
 51 58  1  0  0  0
 52 53  1  0  0  0
 52 54  2  0  0  0
 53 59  1  0  0  0
 54 57  1  0  0  0
 55 56  1  0  0  0
 55 58  1  0  0  0
 56 59  2  0  0  0
 57 60  1  0  0  0
 58 60  2  0  0  0
 59 60  1  0  0  0
M  END
